.SUBCKT  crb cpx1 cpx2 cpx3 cpx4 cpx5 cpx6 cpx7 cpx8 cpx9 cpx10 cpx11 cpx12 cpx13 cpx14 cpx15 cpx16 cpx17 cpx18 cpx19 cpx20 cpx21 cpx22 cpx23 cpx24 cpx25 cpx26 cpx27 cpx28 cpx29 cpx30 cpx31 cpx32 cpx33 cpx34 cpx35 cpx36 cpx37 cpx38 cpx39 cpx40 cpx41 cpx42 cpx43 cpx44 cpx45 cpx46 cpx47 cpx48 cpx49 cnx1 cnx2 cnx3 cnx4 cnx5 cnx6 cnx7 cnx8 cnx9 cnx10 cnx11 cnx12 cnx13 cnx14 cnx15 cnx16 cnx17 cnx18 cnx19 cnx20 cnx21 cnx22 cnx23 cnx24 cnx25 cnx26 cnx27 cnx28 cnx29 cnx30 cnx31 cnx32 cnx33 cnx34 cnx35 cnx36 cnx37 cnx38 cnx39 cnx40 cnx41 cnx42 cnx43 cnx44 cnx45 cnx46 cnx47 cnx48 cnx49 cpy1 cpy2 cpy3 cpy4 cpy5 cpy6 cpy7 cpy8 cpy9 cpy10 cpy11 cpy12 cpy13 cpy14 cpy15 cpy16 cpy17 cpy18 cpy19 cpy20 cpy21 cpy22 cpy23 cpy24 cpy25 cny1 cny2 cny3 cny4 cny5 cny6 cny7 cny8 cny9 cny10 cny11 cny12 cny13 cny14 cny15 cny16 cny17 cny18 cny19 cny20 cny21 cny22 cny23 cny24 cny25 

rpp1_1 cpx1 cpy1 7.0000meg
rpp1_2 cpx1 cpy2 16.0000meg
rpp1_3 cpx1 cpy3 16.0000meg
rpp1_4 cpx1 cpy4 16.0000meg
rpp1_5 cpx1 cpy5 7.0000meg
rpp1_6 cpx1 cpy6 7.0000meg
rpp1_7 cpx1 cpy7 16.0000meg
rpp1_8 cpx1 cpy8 16.0000meg
rpp1_9 cpx1 cpy9 16.0000meg
rpp1_10 cpx1 cpy10 7.0000meg
rpp1_11 cpx1 cpy11 7.0000meg
rpp1_12 cpx1 cpy12 7.0000meg
rpp1_13 cpx1 cpy13 16.0000meg
rpp1_14 cpx1 cpy14 16.0000meg
rpp1_15 cpx1 cpy15 7.0000meg
rpp1_16 cpx1 cpy16 7.0000meg
rpp1_17 cpx1 cpy17 16.0000meg
rpp1_18 cpx1 cpy18 16.0000meg
rpp1_19 cpx1 cpy19 16.0000meg
rpp1_20 cpx1 cpy20 7.0000meg
rpp1_21 cpx1 cpy21 7.0000meg
rpp1_22 cpx1 cpy22 16.0000meg
rpp1_23 cpx1 cpy23 16.0000meg
rpp1_24 cpx1 cpy24 16.0000meg
rpp1_25 cpx1 cpy25 7.0000meg
rpp2_1 cpx2 cpy1 16.0000meg
rpp2_2 cpx2 cpy2 7.0000meg
rpp2_3 cpx2 cpy3 16.0000meg
rpp2_4 cpx2 cpy4 16.0000meg
rpp2_5 cpx2 cpy5 16.0000meg
rpp2_6 cpx2 cpy6 16.0000meg
rpp2_7 cpx2 cpy7 16.0000meg
rpp2_8 cpx2 cpy8 16.0000meg
rpp2_9 cpx2 cpy9 16.0000meg
rpp2_10 cpx2 cpy10 16.0000meg
rpp2_11 cpx2 cpy11 16.0000meg
rpp2_12 cpx2 cpy12 16.0000meg
rpp2_13 cpx2 cpy13 16.0000meg
rpp2_14 cpx2 cpy14 16.0000meg
rpp2_15 cpx2 cpy15 16.0000meg
rpp2_16 cpx2 cpy16 16.0000meg
rpp2_17 cpx2 cpy17 7.0000meg
rpp2_18 cpx2 cpy18 16.0000meg
rpp2_19 cpx2 cpy19 16.0000meg
rpp2_20 cpx2 cpy20 16.0000meg
rpp2_21 cpx2 cpy21 16.0000meg
rpp2_22 cpx2 cpy22 7.0000meg
rpp2_23 cpx2 cpy23 16.0000meg
rpp2_24 cpx2 cpy24 16.0000meg
rpp2_25 cpx2 cpy25 16.0000meg
rpp3_1 cpx3 cpy1 16.0000meg
rpp3_2 cpx3 cpy2 7.0000meg
rpp3_3 cpx3 cpy3 16.0000meg
rpp3_4 cpx3 cpy4 16.0000meg
rpp3_5 cpx3 cpy5 16.0000meg
rpp3_6 cpx3 cpy6 16.0000meg
rpp3_7 cpx3 cpy7 16.0000meg
rpp3_8 cpx3 cpy8 16.0000meg
rpp3_9 cpx3 cpy9 16.0000meg
rpp3_10 cpx3 cpy10 16.0000meg
rpp3_11 cpx3 cpy11 16.0000meg
rpp3_12 cpx3 cpy12 16.0000meg
rpp3_13 cpx3 cpy13 16.0000meg
rpp3_14 cpx3 cpy14 16.0000meg
rpp3_15 cpx3 cpy15 16.0000meg
rpp3_16 cpx3 cpy16 16.0000meg
rpp3_17 cpx3 cpy17 7.0000meg
rpp3_18 cpx3 cpy18 16.0000meg
rpp3_19 cpx3 cpy19 16.0000meg
rpp3_20 cpx3 cpy20 16.0000meg
rpp3_21 cpx3 cpy21 16.0000meg
rpp3_22 cpx3 cpy22 7.0000meg
rpp3_23 cpx3 cpy23 16.0000meg
rpp3_24 cpx3 cpy24 16.0000meg
rpp3_25 cpx3 cpy25 16.0000meg
rpp4_1 cpx4 cpy1 16.0000meg
rpp4_2 cpx4 cpy2 16.0000meg
rpp4_3 cpx4 cpy3 7.0000meg
rpp4_4 cpx4 cpy4 7.0000meg
rpp4_5 cpx4 cpy5 16.0000meg
rpp4_6 cpx4 cpy6 16.0000meg
rpp4_7 cpx4 cpy7 7.0000meg
rpp4_8 cpx4 cpy8 16.0000meg
rpp4_9 cpx4 cpy9 7.0000meg
rpp4_10 cpx4 cpy10 16.0000meg
rpp4_11 cpx4 cpy11 16.0000meg
rpp4_12 cpx4 cpy12 16.0000meg
rpp4_13 cpx4 cpy13 7.0000meg
rpp4_14 cpx4 cpy14 7.0000meg
rpp4_15 cpx4 cpy15 16.0000meg
rpp4_16 cpx4 cpy16 16.0000meg
rpp4_17 cpx4 cpy17 16.0000meg
rpp4_18 cpx4 cpy18 7.0000meg
rpp4_19 cpx4 cpy19 16.0000meg
rpp4_20 cpx4 cpy20 16.0000meg
rpp4_21 cpx4 cpy21 16.0000meg
rpp4_22 cpx4 cpy22 16.0000meg
rpp4_23 cpx4 cpy23 7.0000meg
rpp4_24 cpx4 cpy24 7.0000meg
rpp4_25 cpx4 cpy25 16.0000meg
rpp5_1 cpx5 cpy1 16.0000meg
rpp5_2 cpx5 cpy2 7.0000meg
rpp5_3 cpx5 cpy3 16.0000meg
rpp5_4 cpx5 cpy4 16.0000meg
rpp5_5 cpx5 cpy5 16.0000meg
rpp5_6 cpx5 cpy6 16.0000meg
rpp5_7 cpx5 cpy7 16.0000meg
rpp5_8 cpx5 cpy8 16.0000meg
rpp5_9 cpx5 cpy9 16.0000meg
rpp5_10 cpx5 cpy10 16.0000meg
rpp5_11 cpx5 cpy11 16.0000meg
rpp5_12 cpx5 cpy12 16.0000meg
rpp5_13 cpx5 cpy13 16.0000meg
rpp5_14 cpx5 cpy14 16.0000meg
rpp5_15 cpx5 cpy15 16.0000meg
rpp5_16 cpx5 cpy16 16.0000meg
rpp5_17 cpx5 cpy17 7.0000meg
rpp5_18 cpx5 cpy18 16.0000meg
rpp5_19 cpx5 cpy19 16.0000meg
rpp5_20 cpx5 cpy20 16.0000meg
rpp5_21 cpx5 cpy21 16.0000meg
rpp5_22 cpx5 cpy22 7.0000meg
rpp5_23 cpx5 cpy23 16.0000meg
rpp5_24 cpx5 cpy24 16.0000meg
rpp5_25 cpx5 cpy25 16.0000meg
rpp6_1 cpx6 cpy1 7.0000meg
rpp6_2 cpx6 cpy2 16.0000meg
rpp6_3 cpx6 cpy3 16.0000meg
rpp6_4 cpx6 cpy4 16.0000meg
rpp6_5 cpx6 cpy5 7.0000meg
rpp6_6 cpx6 cpy6 7.0000meg
rpp6_7 cpx6 cpy7 16.0000meg
rpp6_8 cpx6 cpy8 16.0000meg
rpp6_9 cpx6 cpy9 16.0000meg
rpp6_10 cpx6 cpy10 7.0000meg
rpp6_11 cpx6 cpy11 7.0000meg
rpp6_12 cpx6 cpy12 7.0000meg
rpp6_13 cpx6 cpy13 16.0000meg
rpp6_14 cpx6 cpy14 16.0000meg
rpp6_15 cpx6 cpy15 7.0000meg
rpp6_16 cpx6 cpy16 7.0000meg
rpp6_17 cpx6 cpy17 16.0000meg
rpp6_18 cpx6 cpy18 16.0000meg
rpp6_19 cpx6 cpy19 16.0000meg
rpp6_20 cpx6 cpy20 7.0000meg
rpp6_21 cpx6 cpy21 7.0000meg
rpp6_22 cpx6 cpy22 16.0000meg
rpp6_23 cpx6 cpy23 16.0000meg
rpp6_24 cpx6 cpy24 16.0000meg
rpp6_25 cpx6 cpy25 7.0000meg
rpp7_1 cpx7 cpy1 7.0000meg
rpp7_2 cpx7 cpy2 16.0000meg
rpp7_3 cpx7 cpy3 16.0000meg
rpp7_4 cpx7 cpy4 16.0000meg
rpp7_5 cpx7 cpy5 7.0000meg
rpp7_6 cpx7 cpy6 7.0000meg
rpp7_7 cpx7 cpy7 16.0000meg
rpp7_8 cpx7 cpy8 16.0000meg
rpp7_9 cpx7 cpy9 16.0000meg
rpp7_10 cpx7 cpy10 7.0000meg
rpp7_11 cpx7 cpy11 7.0000meg
rpp7_12 cpx7 cpy12 7.0000meg
rpp7_13 cpx7 cpy13 16.0000meg
rpp7_14 cpx7 cpy14 16.0000meg
rpp7_15 cpx7 cpy15 7.0000meg
rpp7_16 cpx7 cpy16 7.0000meg
rpp7_17 cpx7 cpy17 16.0000meg
rpp7_18 cpx7 cpy18 16.0000meg
rpp7_19 cpx7 cpy19 16.0000meg
rpp7_20 cpx7 cpy20 7.0000meg
rpp7_21 cpx7 cpy21 7.0000meg
rpp7_22 cpx7 cpy22 16.0000meg
rpp7_23 cpx7 cpy23 16.0000meg
rpp7_24 cpx7 cpy24 16.0000meg
rpp7_25 cpx7 cpy25 7.0000meg
rpp8_1 cpx8 cpy1 7.0000meg
rpp8_2 cpx8 cpy2 16.0000meg
rpp8_3 cpx8 cpy3 16.0000meg
rpp8_4 cpx8 cpy4 16.0000meg
rpp8_5 cpx8 cpy5 7.0000meg
rpp8_6 cpx8 cpy6 7.0000meg
rpp8_7 cpx8 cpy7 16.0000meg
rpp8_8 cpx8 cpy8 16.0000meg
rpp8_9 cpx8 cpy9 16.0000meg
rpp8_10 cpx8 cpy10 7.0000meg
rpp8_11 cpx8 cpy11 7.0000meg
rpp8_12 cpx8 cpy12 7.0000meg
rpp8_13 cpx8 cpy13 16.0000meg
rpp8_14 cpx8 cpy14 16.0000meg
rpp8_15 cpx8 cpy15 7.0000meg
rpp8_16 cpx8 cpy16 7.0000meg
rpp8_17 cpx8 cpy17 16.0000meg
rpp8_18 cpx8 cpy18 16.0000meg
rpp8_19 cpx8 cpy19 16.0000meg
rpp8_20 cpx8 cpy20 7.0000meg
rpp8_21 cpx8 cpy21 7.0000meg
rpp8_22 cpx8 cpy22 16.0000meg
rpp8_23 cpx8 cpy23 16.0000meg
rpp8_24 cpx8 cpy24 16.0000meg
rpp8_25 cpx8 cpy25 7.0000meg
rpp9_1 cpx9 cpy1 16.0000meg
rpp9_2 cpx9 cpy2 7.0000meg
rpp9_3 cpx9 cpy3 16.0000meg
rpp9_4 cpx9 cpy4 16.0000meg
rpp9_5 cpx9 cpy5 16.0000meg
rpp9_6 cpx9 cpy6 16.0000meg
rpp9_7 cpx9 cpy7 16.0000meg
rpp9_8 cpx9 cpy8 16.0000meg
rpp9_9 cpx9 cpy9 16.0000meg
rpp9_10 cpx9 cpy10 16.0000meg
rpp9_11 cpx9 cpy11 16.0000meg
rpp9_12 cpx9 cpy12 16.0000meg
rpp9_13 cpx9 cpy13 16.0000meg
rpp9_14 cpx9 cpy14 16.0000meg
rpp9_15 cpx9 cpy15 16.0000meg
rpp9_16 cpx9 cpy16 16.0000meg
rpp9_17 cpx9 cpy17 7.0000meg
rpp9_18 cpx9 cpy18 16.0000meg
rpp9_19 cpx9 cpy19 16.0000meg
rpp9_20 cpx9 cpy20 16.0000meg
rpp9_21 cpx9 cpy21 16.0000meg
rpp9_22 cpx9 cpy22 7.0000meg
rpp9_23 cpx9 cpy23 16.0000meg
rpp9_24 cpx9 cpy24 16.0000meg
rpp9_25 cpx9 cpy25 16.0000meg
rpp10_1 cpx10 cpy1 16.0000meg
rpp10_2 cpx10 cpy2 16.0000meg
rpp10_3 cpx10 cpy3 7.0000meg
rpp10_4 cpx10 cpy4 7.0000meg
rpp10_5 cpx10 cpy5 16.0000meg
rpp10_6 cpx10 cpy6 16.0000meg
rpp10_7 cpx10 cpy7 7.0000meg
rpp10_8 cpx10 cpy8 16.0000meg
rpp10_9 cpx10 cpy9 7.0000meg
rpp10_10 cpx10 cpy10 16.0000meg
rpp10_11 cpx10 cpy11 16.0000meg
rpp10_12 cpx10 cpy12 16.0000meg
rpp10_13 cpx10 cpy13 7.0000meg
rpp10_14 cpx10 cpy14 7.0000meg
rpp10_15 cpx10 cpy15 16.0000meg
rpp10_16 cpx10 cpy16 16.0000meg
rpp10_17 cpx10 cpy17 16.0000meg
rpp10_18 cpx10 cpy18 7.0000meg
rpp10_19 cpx10 cpy19 16.0000meg
rpp10_20 cpx10 cpy20 16.0000meg
rpp10_21 cpx10 cpy21 16.0000meg
rpp10_22 cpx10 cpy22 16.0000meg
rpp10_23 cpx10 cpy23 7.0000meg
rpp10_24 cpx10 cpy24 7.0000meg
rpp10_25 cpx10 cpy25 16.0000meg
rpp11_1 cpx11 cpy1 16.0000meg
rpp11_2 cpx11 cpy2 16.0000meg
rpp11_3 cpx11 cpy3 16.0000meg
rpp11_4 cpx11 cpy4 16.0000meg
rpp11_5 cpx11 cpy5 16.0000meg
rpp11_6 cpx11 cpy6 16.0000meg
rpp11_7 cpx11 cpy7 16.0000meg
rpp11_8 cpx11 cpy8 7.0000meg
rpp11_9 cpx11 cpy9 16.0000meg
rpp11_10 cpx11 cpy10 16.0000meg
rpp11_11 cpx11 cpy11 16.0000meg
rpp11_12 cpx11 cpy12 16.0000meg
rpp11_13 cpx11 cpy13 16.0000meg
rpp11_14 cpx11 cpy14 16.0000meg
rpp11_15 cpx11 cpy15 16.0000meg
rpp11_16 cpx11 cpy16 16.0000meg
rpp11_17 cpx11 cpy17 16.0000meg
rpp11_18 cpx11 cpy18 16.0000meg
rpp11_19 cpx11 cpy19 7.0000meg
rpp11_20 cpx11 cpy20 16.0000meg
rpp11_21 cpx11 cpy21 16.0000meg
rpp11_22 cpx11 cpy22 16.0000meg
rpp11_23 cpx11 cpy23 16.0000meg
rpp11_24 cpx11 cpy24 16.0000meg
rpp11_25 cpx11 cpy25 16.0000meg
rpp12_1 cpx12 cpy1 16.0000meg
rpp12_2 cpx12 cpy2 16.0000meg
rpp12_3 cpx12 cpy3 7.0000meg
rpp12_4 cpx12 cpy4 7.0000meg
rpp12_5 cpx12 cpy5 16.0000meg
rpp12_6 cpx12 cpy6 16.0000meg
rpp12_7 cpx12 cpy7 7.0000meg
rpp12_8 cpx12 cpy8 16.0000meg
rpp12_9 cpx12 cpy9 7.0000meg
rpp12_10 cpx12 cpy10 16.0000meg
rpp12_11 cpx12 cpy11 16.0000meg
rpp12_12 cpx12 cpy12 16.0000meg
rpp12_13 cpx12 cpy13 7.0000meg
rpp12_14 cpx12 cpy14 7.0000meg
rpp12_15 cpx12 cpy15 16.0000meg
rpp12_16 cpx12 cpy16 16.0000meg
rpp12_17 cpx12 cpy17 16.0000meg
rpp12_18 cpx12 cpy18 7.0000meg
rpp12_19 cpx12 cpy19 16.0000meg
rpp12_20 cpx12 cpy20 16.0000meg
rpp12_21 cpx12 cpy21 16.0000meg
rpp12_22 cpx12 cpy22 16.0000meg
rpp12_23 cpx12 cpy23 7.0000meg
rpp12_24 cpx12 cpy24 7.0000meg
rpp12_25 cpx12 cpy25 16.0000meg
rpp13_1 cpx13 cpy1 16.0000meg
rpp13_2 cpx13 cpy2 7.0000meg
rpp13_3 cpx13 cpy3 16.0000meg
rpp13_4 cpx13 cpy4 16.0000meg
rpp13_5 cpx13 cpy5 16.0000meg
rpp13_6 cpx13 cpy6 16.0000meg
rpp13_7 cpx13 cpy7 16.0000meg
rpp13_8 cpx13 cpy8 16.0000meg
rpp13_9 cpx13 cpy9 16.0000meg
rpp13_10 cpx13 cpy10 16.0000meg
rpp13_11 cpx13 cpy11 16.0000meg
rpp13_12 cpx13 cpy12 16.0000meg
rpp13_13 cpx13 cpy13 16.0000meg
rpp13_14 cpx13 cpy14 16.0000meg
rpp13_15 cpx13 cpy15 16.0000meg
rpp13_16 cpx13 cpy16 16.0000meg
rpp13_17 cpx13 cpy17 7.0000meg
rpp13_18 cpx13 cpy18 16.0000meg
rpp13_19 cpx13 cpy19 16.0000meg
rpp13_20 cpx13 cpy20 16.0000meg
rpp13_21 cpx13 cpy21 16.0000meg
rpp13_22 cpx13 cpy22 7.0000meg
rpp13_23 cpx13 cpy23 16.0000meg
rpp13_24 cpx13 cpy24 16.0000meg
rpp13_25 cpx13 cpy25 16.0000meg
rpp14_1 cpx14 cpy1 7.0000meg
rpp14_2 cpx14 cpy2 16.0000meg
rpp14_3 cpx14 cpy3 16.0000meg
rpp14_4 cpx14 cpy4 16.0000meg
rpp14_5 cpx14 cpy5 7.0000meg
rpp14_6 cpx14 cpy6 7.0000meg
rpp14_7 cpx14 cpy7 16.0000meg
rpp14_8 cpx14 cpy8 16.0000meg
rpp14_9 cpx14 cpy9 16.0000meg
rpp14_10 cpx14 cpy10 7.0000meg
rpp14_11 cpx14 cpy11 7.0000meg
rpp14_12 cpx14 cpy12 7.0000meg
rpp14_13 cpx14 cpy13 16.0000meg
rpp14_14 cpx14 cpy14 16.0000meg
rpp14_15 cpx14 cpy15 7.0000meg
rpp14_16 cpx14 cpy16 7.0000meg
rpp14_17 cpx14 cpy17 16.0000meg
rpp14_18 cpx14 cpy18 16.0000meg
rpp14_19 cpx14 cpy19 16.0000meg
rpp14_20 cpx14 cpy20 7.0000meg
rpp14_21 cpx14 cpy21 7.0000meg
rpp14_22 cpx14 cpy22 16.0000meg
rpp14_23 cpx14 cpy23 16.0000meg
rpp14_24 cpx14 cpy24 16.0000meg
rpp14_25 cpx14 cpy25 7.0000meg
rpp15_1 cpx15 cpy1 7.0000meg
rpp15_2 cpx15 cpy2 16.0000meg
rpp15_3 cpx15 cpy3 16.0000meg
rpp15_4 cpx15 cpy4 16.0000meg
rpp15_5 cpx15 cpy5 7.0000meg
rpp15_6 cpx15 cpy6 7.0000meg
rpp15_7 cpx15 cpy7 16.0000meg
rpp15_8 cpx15 cpy8 16.0000meg
rpp15_9 cpx15 cpy9 16.0000meg
rpp15_10 cpx15 cpy10 7.0000meg
rpp15_11 cpx15 cpy11 7.0000meg
rpp15_12 cpx15 cpy12 7.0000meg
rpp15_13 cpx15 cpy13 16.0000meg
rpp15_14 cpx15 cpy14 16.0000meg
rpp15_15 cpx15 cpy15 7.0000meg
rpp15_16 cpx15 cpy16 7.0000meg
rpp15_17 cpx15 cpy17 16.0000meg
rpp15_18 cpx15 cpy18 16.0000meg
rpp15_19 cpx15 cpy19 16.0000meg
rpp15_20 cpx15 cpy20 7.0000meg
rpp15_21 cpx15 cpy21 7.0000meg
rpp15_22 cpx15 cpy22 16.0000meg
rpp15_23 cpx15 cpy23 16.0000meg
rpp15_24 cpx15 cpy24 16.0000meg
rpp15_25 cpx15 cpy25 7.0000meg
rpp16_1 cpx16 cpy1 16.0000meg
rpp16_2 cpx16 cpy2 7.0000meg
rpp16_3 cpx16 cpy3 16.0000meg
rpp16_4 cpx16 cpy4 16.0000meg
rpp16_5 cpx16 cpy5 16.0000meg
rpp16_6 cpx16 cpy6 16.0000meg
rpp16_7 cpx16 cpy7 16.0000meg
rpp16_8 cpx16 cpy8 16.0000meg
rpp16_9 cpx16 cpy9 16.0000meg
rpp16_10 cpx16 cpy10 16.0000meg
rpp16_11 cpx16 cpy11 16.0000meg
rpp16_12 cpx16 cpy12 16.0000meg
rpp16_13 cpx16 cpy13 16.0000meg
rpp16_14 cpx16 cpy14 16.0000meg
rpp16_15 cpx16 cpy15 16.0000meg
rpp16_16 cpx16 cpy16 16.0000meg
rpp16_17 cpx16 cpy17 7.0000meg
rpp16_18 cpx16 cpy18 16.0000meg
rpp16_19 cpx16 cpy19 16.0000meg
rpp16_20 cpx16 cpy20 16.0000meg
rpp16_21 cpx16 cpy21 16.0000meg
rpp16_22 cpx16 cpy22 7.0000meg
rpp16_23 cpx16 cpy23 16.0000meg
rpp16_24 cpx16 cpy24 16.0000meg
rpp16_25 cpx16 cpy25 16.0000meg
rpp17_1 cpx17 cpy1 16.0000meg
rpp17_2 cpx17 cpy2 16.0000meg
rpp17_3 cpx17 cpy3 16.0000meg
rpp17_4 cpx17 cpy4 16.0000meg
rpp17_5 cpx17 cpy5 16.0000meg
rpp17_6 cpx17 cpy6 16.0000meg
rpp17_7 cpx17 cpy7 16.0000meg
rpp17_8 cpx17 cpy8 7.0000meg
rpp17_9 cpx17 cpy9 16.0000meg
rpp17_10 cpx17 cpy10 16.0000meg
rpp17_11 cpx17 cpy11 16.0000meg
rpp17_12 cpx17 cpy12 16.0000meg
rpp17_13 cpx17 cpy13 16.0000meg
rpp17_14 cpx17 cpy14 16.0000meg
rpp17_15 cpx17 cpy15 16.0000meg
rpp17_16 cpx17 cpy16 16.0000meg
rpp17_17 cpx17 cpy17 16.0000meg
rpp17_18 cpx17 cpy18 16.0000meg
rpp17_19 cpx17 cpy19 7.0000meg
rpp17_20 cpx17 cpy20 16.0000meg
rpp17_21 cpx17 cpy21 16.0000meg
rpp17_22 cpx17 cpy22 16.0000meg
rpp17_23 cpx17 cpy23 16.0000meg
rpp17_24 cpx17 cpy24 16.0000meg
rpp17_25 cpx17 cpy25 16.0000meg
rpp18_1 cpx18 cpy1 16.0000meg
rpp18_2 cpx18 cpy2 16.0000meg
rpp18_3 cpx18 cpy3 16.0000meg
rpp18_4 cpx18 cpy4 16.0000meg
rpp18_5 cpx18 cpy5 16.0000meg
rpp18_6 cpx18 cpy6 16.0000meg
rpp18_7 cpx18 cpy7 16.0000meg
rpp18_8 cpx18 cpy8 7.0000meg
rpp18_9 cpx18 cpy9 16.0000meg
rpp18_10 cpx18 cpy10 16.0000meg
rpp18_11 cpx18 cpy11 16.0000meg
rpp18_12 cpx18 cpy12 16.0000meg
rpp18_13 cpx18 cpy13 16.0000meg
rpp18_14 cpx18 cpy14 16.0000meg
rpp18_15 cpx18 cpy15 16.0000meg
rpp18_16 cpx18 cpy16 16.0000meg
rpp18_17 cpx18 cpy17 16.0000meg
rpp18_18 cpx18 cpy18 16.0000meg
rpp18_19 cpx18 cpy19 7.0000meg
rpp18_20 cpx18 cpy20 16.0000meg
rpp18_21 cpx18 cpy21 16.0000meg
rpp18_22 cpx18 cpy22 16.0000meg
rpp18_23 cpx18 cpy23 16.0000meg
rpp18_24 cpx18 cpy24 16.0000meg
rpp18_25 cpx18 cpy25 16.0000meg
rpp19_1 cpx19 cpy1 16.0000meg
rpp19_2 cpx19 cpy2 16.0000meg
rpp19_3 cpx19 cpy3 16.0000meg
rpp19_4 cpx19 cpy4 16.0000meg
rpp19_5 cpx19 cpy5 16.0000meg
rpp19_6 cpx19 cpy6 16.0000meg
rpp19_7 cpx19 cpy7 16.0000meg
rpp19_8 cpx19 cpy8 7.0000meg
rpp19_9 cpx19 cpy9 16.0000meg
rpp19_10 cpx19 cpy10 16.0000meg
rpp19_11 cpx19 cpy11 16.0000meg
rpp19_12 cpx19 cpy12 16.0000meg
rpp19_13 cpx19 cpy13 16.0000meg
rpp19_14 cpx19 cpy14 16.0000meg
rpp19_15 cpx19 cpy15 16.0000meg
rpp19_16 cpx19 cpy16 16.0000meg
rpp19_17 cpx19 cpy17 16.0000meg
rpp19_18 cpx19 cpy18 16.0000meg
rpp19_19 cpx19 cpy19 7.0000meg
rpp19_20 cpx19 cpy20 16.0000meg
rpp19_21 cpx19 cpy21 16.0000meg
rpp19_22 cpx19 cpy22 16.0000meg
rpp19_23 cpx19 cpy23 16.0000meg
rpp19_24 cpx19 cpy24 16.0000meg
rpp19_25 cpx19 cpy25 16.0000meg
rpp20_1 cpx20 cpy1 16.0000meg
rpp20_2 cpx20 cpy2 7.0000meg
rpp20_3 cpx20 cpy3 16.0000meg
rpp20_4 cpx20 cpy4 16.0000meg
rpp20_5 cpx20 cpy5 16.0000meg
rpp20_6 cpx20 cpy6 16.0000meg
rpp20_7 cpx20 cpy7 16.0000meg
rpp20_8 cpx20 cpy8 16.0000meg
rpp20_9 cpx20 cpy9 16.0000meg
rpp20_10 cpx20 cpy10 16.0000meg
rpp20_11 cpx20 cpy11 16.0000meg
rpp20_12 cpx20 cpy12 16.0000meg
rpp20_13 cpx20 cpy13 16.0000meg
rpp20_14 cpx20 cpy14 16.0000meg
rpp20_15 cpx20 cpy15 16.0000meg
rpp20_16 cpx20 cpy16 16.0000meg
rpp20_17 cpx20 cpy17 7.0000meg
rpp20_18 cpx20 cpy18 16.0000meg
rpp20_19 cpx20 cpy19 16.0000meg
rpp20_20 cpx20 cpy20 16.0000meg
rpp20_21 cpx20 cpy21 16.0000meg
rpp20_22 cpx20 cpy22 7.0000meg
rpp20_23 cpx20 cpy23 16.0000meg
rpp20_24 cpx20 cpy24 16.0000meg
rpp20_25 cpx20 cpy25 16.0000meg
rpp21_1 cpx21 cpy1 7.0000meg
rpp21_2 cpx21 cpy2 16.0000meg
rpp21_3 cpx21 cpy3 16.0000meg
rpp21_4 cpx21 cpy4 16.0000meg
rpp21_5 cpx21 cpy5 7.0000meg
rpp21_6 cpx21 cpy6 7.0000meg
rpp21_7 cpx21 cpy7 16.0000meg
rpp21_8 cpx21 cpy8 16.0000meg
rpp21_9 cpx21 cpy9 16.0000meg
rpp21_10 cpx21 cpy10 7.0000meg
rpp21_11 cpx21 cpy11 7.0000meg
rpp21_12 cpx21 cpy12 7.0000meg
rpp21_13 cpx21 cpy13 16.0000meg
rpp21_14 cpx21 cpy14 16.0000meg
rpp21_15 cpx21 cpy15 7.0000meg
rpp21_16 cpx21 cpy16 7.0000meg
rpp21_17 cpx21 cpy17 16.0000meg
rpp21_18 cpx21 cpy18 16.0000meg
rpp21_19 cpx21 cpy19 16.0000meg
rpp21_20 cpx21 cpy20 7.0000meg
rpp21_21 cpx21 cpy21 7.0000meg
rpp21_22 cpx21 cpy22 16.0000meg
rpp21_23 cpx21 cpy23 16.0000meg
rpp21_24 cpx21 cpy24 16.0000meg
rpp21_25 cpx21 cpy25 7.0000meg
rpp22_1 cpx22 cpy1 7.0000meg
rpp22_2 cpx22 cpy2 16.0000meg
rpp22_3 cpx22 cpy3 16.0000meg
rpp22_4 cpx22 cpy4 16.0000meg
rpp22_5 cpx22 cpy5 7.0000meg
rpp22_6 cpx22 cpy6 7.0000meg
rpp22_7 cpx22 cpy7 16.0000meg
rpp22_8 cpx22 cpy8 16.0000meg
rpp22_9 cpx22 cpy9 16.0000meg
rpp22_10 cpx22 cpy10 7.0000meg
rpp22_11 cpx22 cpy11 7.0000meg
rpp22_12 cpx22 cpy12 7.0000meg
rpp22_13 cpx22 cpy13 16.0000meg
rpp22_14 cpx22 cpy14 16.0000meg
rpp22_15 cpx22 cpy15 7.0000meg
rpp22_16 cpx22 cpy16 7.0000meg
rpp22_17 cpx22 cpy17 16.0000meg
rpp22_18 cpx22 cpy18 16.0000meg
rpp22_19 cpx22 cpy19 16.0000meg
rpp22_20 cpx22 cpy20 7.0000meg
rpp22_21 cpx22 cpy21 7.0000meg
rpp22_22 cpx22 cpy22 16.0000meg
rpp22_23 cpx22 cpy23 16.0000meg
rpp22_24 cpx22 cpy24 16.0000meg
rpp22_25 cpx22 cpy25 7.0000meg
rpp23_1 cpx23 cpy1 16.0000meg
rpp23_2 cpx23 cpy2 16.0000meg
rpp23_3 cpx23 cpy3 7.0000meg
rpp23_4 cpx23 cpy4 7.0000meg
rpp23_5 cpx23 cpy5 16.0000meg
rpp23_6 cpx23 cpy6 16.0000meg
rpp23_7 cpx23 cpy7 7.0000meg
rpp23_8 cpx23 cpy8 16.0000meg
rpp23_9 cpx23 cpy9 7.0000meg
rpp23_10 cpx23 cpy10 16.0000meg
rpp23_11 cpx23 cpy11 16.0000meg
rpp23_12 cpx23 cpy12 16.0000meg
rpp23_13 cpx23 cpy13 7.0000meg
rpp23_14 cpx23 cpy14 7.0000meg
rpp23_15 cpx23 cpy15 16.0000meg
rpp23_16 cpx23 cpy16 16.0000meg
rpp23_17 cpx23 cpy17 16.0000meg
rpp23_18 cpx23 cpy18 7.0000meg
rpp23_19 cpx23 cpy19 16.0000meg
rpp23_20 cpx23 cpy20 16.0000meg
rpp23_21 cpx23 cpy21 16.0000meg
rpp23_22 cpx23 cpy22 16.0000meg
rpp23_23 cpx23 cpy23 7.0000meg
rpp23_24 cpx23 cpy24 7.0000meg
rpp23_25 cpx23 cpy25 16.0000meg
rpp24_1 cpx24 cpy1 16.0000meg
rpp24_2 cpx24 cpy2 16.0000meg
rpp24_3 cpx24 cpy3 7.0000meg
rpp24_4 cpx24 cpy4 7.0000meg
rpp24_5 cpx24 cpy5 16.0000meg
rpp24_6 cpx24 cpy6 16.0000meg
rpp24_7 cpx24 cpy7 7.0000meg
rpp24_8 cpx24 cpy8 16.0000meg
rpp24_9 cpx24 cpy9 7.0000meg
rpp24_10 cpx24 cpy10 16.0000meg
rpp24_11 cpx24 cpy11 16.0000meg
rpp24_12 cpx24 cpy12 16.0000meg
rpp24_13 cpx24 cpy13 7.0000meg
rpp24_14 cpx24 cpy14 7.0000meg
rpp24_15 cpx24 cpy15 16.0000meg
rpp24_16 cpx24 cpy16 16.0000meg
rpp24_17 cpx24 cpy17 16.0000meg
rpp24_18 cpx24 cpy18 7.0000meg
rpp24_19 cpx24 cpy19 16.0000meg
rpp24_20 cpx24 cpy20 16.0000meg
rpp24_21 cpx24 cpy21 16.0000meg
rpp24_22 cpx24 cpy22 16.0000meg
rpp24_23 cpx24 cpy23 7.0000meg
rpp24_24 cpx24 cpy24 7.0000meg
rpp24_25 cpx24 cpy25 16.0000meg
rpp25_1 cpx25 cpy1 16.0000meg
rpp25_2 cpx25 cpy2 7.0000meg
rpp25_3 cpx25 cpy3 16.0000meg
rpp25_4 cpx25 cpy4 16.0000meg
rpp25_5 cpx25 cpy5 16.0000meg
rpp25_6 cpx25 cpy6 16.0000meg
rpp25_7 cpx25 cpy7 16.0000meg
rpp25_8 cpx25 cpy8 16.0000meg
rpp25_9 cpx25 cpy9 16.0000meg
rpp25_10 cpx25 cpy10 16.0000meg
rpp25_11 cpx25 cpy11 16.0000meg
rpp25_12 cpx25 cpy12 16.0000meg
rpp25_13 cpx25 cpy13 16.0000meg
rpp25_14 cpx25 cpy14 16.0000meg
rpp25_15 cpx25 cpy15 16.0000meg
rpp25_16 cpx25 cpy16 16.0000meg
rpp25_17 cpx25 cpy17 7.0000meg
rpp25_18 cpx25 cpy18 16.0000meg
rpp25_19 cpx25 cpy19 16.0000meg
rpp25_20 cpx25 cpy20 16.0000meg
rpp25_21 cpx25 cpy21 16.0000meg
rpp25_22 cpx25 cpy22 7.0000meg
rpp25_23 cpx25 cpy23 16.0000meg
rpp25_24 cpx25 cpy24 16.0000meg
rpp25_25 cpx25 cpy25 16.0000meg
rpp26_1 cpx26 cpy1 16.0000meg
rpp26_2 cpx26 cpy2 16.0000meg
rpp26_3 cpx26 cpy3 7.0000meg
rpp26_4 cpx26 cpy4 7.0000meg
rpp26_5 cpx26 cpy5 16.0000meg
rpp26_6 cpx26 cpy6 16.0000meg
rpp26_7 cpx26 cpy7 7.0000meg
rpp26_8 cpx26 cpy8 16.0000meg
rpp26_9 cpx26 cpy9 7.0000meg
rpp26_10 cpx26 cpy10 16.0000meg
rpp26_11 cpx26 cpy11 16.0000meg
rpp26_12 cpx26 cpy12 16.0000meg
rpp26_13 cpx26 cpy13 7.0000meg
rpp26_14 cpx26 cpy14 7.0000meg
rpp26_15 cpx26 cpy15 16.0000meg
rpp26_16 cpx26 cpy16 16.0000meg
rpp26_17 cpx26 cpy17 16.0000meg
rpp26_18 cpx26 cpy18 7.0000meg
rpp26_19 cpx26 cpy19 16.0000meg
rpp26_20 cpx26 cpy20 16.0000meg
rpp26_21 cpx26 cpy21 16.0000meg
rpp26_22 cpx26 cpy22 16.0000meg
rpp26_23 cpx26 cpy23 7.0000meg
rpp26_24 cpx26 cpy24 7.0000meg
rpp26_25 cpx26 cpy25 16.0000meg
rpp27_1 cpx27 cpy1 16.0000meg
rpp27_2 cpx27 cpy2 16.0000meg
rpp27_3 cpx27 cpy3 7.0000meg
rpp27_4 cpx27 cpy4 7.0000meg
rpp27_5 cpx27 cpy5 16.0000meg
rpp27_6 cpx27 cpy6 16.0000meg
rpp27_7 cpx27 cpy7 7.0000meg
rpp27_8 cpx27 cpy8 16.0000meg
rpp27_9 cpx27 cpy9 7.0000meg
rpp27_10 cpx27 cpy10 16.0000meg
rpp27_11 cpx27 cpy11 16.0000meg
rpp27_12 cpx27 cpy12 16.0000meg
rpp27_13 cpx27 cpy13 7.0000meg
rpp27_14 cpx27 cpy14 7.0000meg
rpp27_15 cpx27 cpy15 16.0000meg
rpp27_16 cpx27 cpy16 16.0000meg
rpp27_17 cpx27 cpy17 16.0000meg
rpp27_18 cpx27 cpy18 7.0000meg
rpp27_19 cpx27 cpy19 16.0000meg
rpp27_20 cpx27 cpy20 16.0000meg
rpp27_21 cpx27 cpy21 16.0000meg
rpp27_22 cpx27 cpy22 16.0000meg
rpp27_23 cpx27 cpy23 7.0000meg
rpp27_24 cpx27 cpy24 7.0000meg
rpp27_25 cpx27 cpy25 16.0000meg
rpp28_1 cpx28 cpy1 7.0000meg
rpp28_2 cpx28 cpy2 16.0000meg
rpp28_3 cpx28 cpy3 16.0000meg
rpp28_4 cpx28 cpy4 16.0000meg
rpp28_5 cpx28 cpy5 7.0000meg
rpp28_6 cpx28 cpy6 7.0000meg
rpp28_7 cpx28 cpy7 16.0000meg
rpp28_8 cpx28 cpy8 16.0000meg
rpp28_9 cpx28 cpy9 16.0000meg
rpp28_10 cpx28 cpy10 7.0000meg
rpp28_11 cpx28 cpy11 7.0000meg
rpp28_12 cpx28 cpy12 7.0000meg
rpp28_13 cpx28 cpy13 16.0000meg
rpp28_14 cpx28 cpy14 16.0000meg
rpp28_15 cpx28 cpy15 7.0000meg
rpp28_16 cpx28 cpy16 7.0000meg
rpp28_17 cpx28 cpy17 16.0000meg
rpp28_18 cpx28 cpy18 16.0000meg
rpp28_19 cpx28 cpy19 16.0000meg
rpp28_20 cpx28 cpy20 7.0000meg
rpp28_21 cpx28 cpy21 7.0000meg
rpp28_22 cpx28 cpy22 16.0000meg
rpp28_23 cpx28 cpy23 16.0000meg
rpp28_24 cpx28 cpy24 16.0000meg
rpp28_25 cpx28 cpy25 7.0000meg
rpp29_1 cpx29 cpy1 7.0000meg
rpp29_2 cpx29 cpy2 16.0000meg
rpp29_3 cpx29 cpy3 16.0000meg
rpp29_4 cpx29 cpy4 16.0000meg
rpp29_5 cpx29 cpy5 7.0000meg
rpp29_6 cpx29 cpy6 7.0000meg
rpp29_7 cpx29 cpy7 16.0000meg
rpp29_8 cpx29 cpy8 16.0000meg
rpp29_9 cpx29 cpy9 16.0000meg
rpp29_10 cpx29 cpy10 7.0000meg
rpp29_11 cpx29 cpy11 7.0000meg
rpp29_12 cpx29 cpy12 7.0000meg
rpp29_13 cpx29 cpy13 16.0000meg
rpp29_14 cpx29 cpy14 16.0000meg
rpp29_15 cpx29 cpy15 7.0000meg
rpp29_16 cpx29 cpy16 7.0000meg
rpp29_17 cpx29 cpy17 16.0000meg
rpp29_18 cpx29 cpy18 16.0000meg
rpp29_19 cpx29 cpy19 16.0000meg
rpp29_20 cpx29 cpy20 7.0000meg
rpp29_21 cpx29 cpy21 7.0000meg
rpp29_22 cpx29 cpy22 16.0000meg
rpp29_23 cpx29 cpy23 16.0000meg
rpp29_24 cpx29 cpy24 16.0000meg
rpp29_25 cpx29 cpy25 7.0000meg
rpp30_1 cpx30 cpy1 16.0000meg
rpp30_2 cpx30 cpy2 16.0000meg
rpp30_3 cpx30 cpy3 7.0000meg
rpp30_4 cpx30 cpy4 7.0000meg
rpp30_5 cpx30 cpy5 16.0000meg
rpp30_6 cpx30 cpy6 16.0000meg
rpp30_7 cpx30 cpy7 7.0000meg
rpp30_8 cpx30 cpy8 16.0000meg
rpp30_9 cpx30 cpy9 7.0000meg
rpp30_10 cpx30 cpy10 16.0000meg
rpp30_11 cpx30 cpy11 16.0000meg
rpp30_12 cpx30 cpy12 16.0000meg
rpp30_13 cpx30 cpy13 7.0000meg
rpp30_14 cpx30 cpy14 7.0000meg
rpp30_15 cpx30 cpy15 16.0000meg
rpp30_16 cpx30 cpy16 16.0000meg
rpp30_17 cpx30 cpy17 16.0000meg
rpp30_18 cpx30 cpy18 7.0000meg
rpp30_19 cpx30 cpy19 16.0000meg
rpp30_20 cpx30 cpy20 16.0000meg
rpp30_21 cpx30 cpy21 16.0000meg
rpp30_22 cpx30 cpy22 16.0000meg
rpp30_23 cpx30 cpy23 7.0000meg
rpp30_24 cpx30 cpy24 7.0000meg
rpp30_25 cpx30 cpy25 16.0000meg
rpp31_1 cpx31 cpy1 16.0000meg
rpp31_2 cpx31 cpy2 16.0000meg
rpp31_3 cpx31 cpy3 16.0000meg
rpp31_4 cpx31 cpy4 16.0000meg
rpp31_5 cpx31 cpy5 16.0000meg
rpp31_6 cpx31 cpy6 16.0000meg
rpp31_7 cpx31 cpy7 16.0000meg
rpp31_8 cpx31 cpy8 7.0000meg
rpp31_9 cpx31 cpy9 16.0000meg
rpp31_10 cpx31 cpy10 16.0000meg
rpp31_11 cpx31 cpy11 16.0000meg
rpp31_12 cpx31 cpy12 16.0000meg
rpp31_13 cpx31 cpy13 16.0000meg
rpp31_14 cpx31 cpy14 16.0000meg
rpp31_15 cpx31 cpy15 16.0000meg
rpp31_16 cpx31 cpy16 16.0000meg
rpp31_17 cpx31 cpy17 16.0000meg
rpp31_18 cpx31 cpy18 16.0000meg
rpp31_19 cpx31 cpy19 7.0000meg
rpp31_20 cpx31 cpy20 16.0000meg
rpp31_21 cpx31 cpy21 16.0000meg
rpp31_22 cpx31 cpy22 16.0000meg
rpp31_23 cpx31 cpy23 16.0000meg
rpp31_24 cpx31 cpy24 16.0000meg
rpp31_25 cpx31 cpy25 16.0000meg
rpp32_1 cpx32 cpy1 16.0000meg
rpp32_2 cpx32 cpy2 16.0000meg
rpp32_3 cpx32 cpy3 16.0000meg
rpp32_4 cpx32 cpy4 16.0000meg
rpp32_5 cpx32 cpy5 16.0000meg
rpp32_6 cpx32 cpy6 16.0000meg
rpp32_7 cpx32 cpy7 16.0000meg
rpp32_8 cpx32 cpy8 7.0000meg
rpp32_9 cpx32 cpy9 16.0000meg
rpp32_10 cpx32 cpy10 16.0000meg
rpp32_11 cpx32 cpy11 16.0000meg
rpp32_12 cpx32 cpy12 16.0000meg
rpp32_13 cpx32 cpy13 16.0000meg
rpp32_14 cpx32 cpy14 16.0000meg
rpp32_15 cpx32 cpy15 16.0000meg
rpp32_16 cpx32 cpy16 16.0000meg
rpp32_17 cpx32 cpy17 16.0000meg
rpp32_18 cpx32 cpy18 16.0000meg
rpp32_19 cpx32 cpy19 7.0000meg
rpp32_20 cpx32 cpy20 16.0000meg
rpp32_21 cpx32 cpy21 16.0000meg
rpp32_22 cpx32 cpy22 16.0000meg
rpp32_23 cpx32 cpy23 16.0000meg
rpp32_24 cpx32 cpy24 16.0000meg
rpp32_25 cpx32 cpy25 16.0000meg
rpp33_1 cpx33 cpy1 16.0000meg
rpp33_2 cpx33 cpy2 16.0000meg
rpp33_3 cpx33 cpy3 16.0000meg
rpp33_4 cpx33 cpy4 16.0000meg
rpp33_5 cpx33 cpy5 16.0000meg
rpp33_6 cpx33 cpy6 16.0000meg
rpp33_7 cpx33 cpy7 16.0000meg
rpp33_8 cpx33 cpy8 7.0000meg
rpp33_9 cpx33 cpy9 16.0000meg
rpp33_10 cpx33 cpy10 16.0000meg
rpp33_11 cpx33 cpy11 16.0000meg
rpp33_12 cpx33 cpy12 16.0000meg
rpp33_13 cpx33 cpy13 16.0000meg
rpp33_14 cpx33 cpy14 16.0000meg
rpp33_15 cpx33 cpy15 16.0000meg
rpp33_16 cpx33 cpy16 16.0000meg
rpp33_17 cpx33 cpy17 16.0000meg
rpp33_18 cpx33 cpy18 16.0000meg
rpp33_19 cpx33 cpy19 7.0000meg
rpp33_20 cpx33 cpy20 16.0000meg
rpp33_21 cpx33 cpy21 16.0000meg
rpp33_22 cpx33 cpy22 16.0000meg
rpp33_23 cpx33 cpy23 16.0000meg
rpp33_24 cpx33 cpy24 16.0000meg
rpp33_25 cpx33 cpy25 16.0000meg
rpp34_1 cpx34 cpy1 16.0000meg
rpp34_2 cpx34 cpy2 16.0000meg
rpp34_3 cpx34 cpy3 7.0000meg
rpp34_4 cpx34 cpy4 7.0000meg
rpp34_5 cpx34 cpy5 16.0000meg
rpp34_6 cpx34 cpy6 16.0000meg
rpp34_7 cpx34 cpy7 7.0000meg
rpp34_8 cpx34 cpy8 16.0000meg
rpp34_9 cpx34 cpy9 7.0000meg
rpp34_10 cpx34 cpy10 16.0000meg
rpp34_11 cpx34 cpy11 16.0000meg
rpp34_12 cpx34 cpy12 16.0000meg
rpp34_13 cpx34 cpy13 7.0000meg
rpp34_14 cpx34 cpy14 7.0000meg
rpp34_15 cpx34 cpy15 16.0000meg
rpp34_16 cpx34 cpy16 16.0000meg
rpp34_17 cpx34 cpy17 16.0000meg
rpp34_18 cpx34 cpy18 7.0000meg
rpp34_19 cpx34 cpy19 16.0000meg
rpp34_20 cpx34 cpy20 16.0000meg
rpp34_21 cpx34 cpy21 16.0000meg
rpp34_22 cpx34 cpy22 16.0000meg
rpp34_23 cpx34 cpy23 7.0000meg
rpp34_24 cpx34 cpy24 7.0000meg
rpp34_25 cpx34 cpy25 16.0000meg
rpp35_1 cpx35 cpy1 7.0000meg
rpp35_2 cpx35 cpy2 16.0000meg
rpp35_3 cpx35 cpy3 16.0000meg
rpp35_4 cpx35 cpy4 16.0000meg
rpp35_5 cpx35 cpy5 7.0000meg
rpp35_6 cpx35 cpy6 7.0000meg
rpp35_7 cpx35 cpy7 16.0000meg
rpp35_8 cpx35 cpy8 16.0000meg
rpp35_9 cpx35 cpy9 16.0000meg
rpp35_10 cpx35 cpy10 7.0000meg
rpp35_11 cpx35 cpy11 7.0000meg
rpp35_12 cpx35 cpy12 7.0000meg
rpp35_13 cpx35 cpy13 16.0000meg
rpp35_14 cpx35 cpy14 16.0000meg
rpp35_15 cpx35 cpy15 7.0000meg
rpp35_16 cpx35 cpy16 7.0000meg
rpp35_17 cpx35 cpy17 16.0000meg
rpp35_18 cpx35 cpy18 16.0000meg
rpp35_19 cpx35 cpy19 16.0000meg
rpp35_20 cpx35 cpy20 7.0000meg
rpp35_21 cpx35 cpy21 7.0000meg
rpp35_22 cpx35 cpy22 16.0000meg
rpp35_23 cpx35 cpy23 16.0000meg
rpp35_24 cpx35 cpy24 16.0000meg
rpp35_25 cpx35 cpy25 7.0000meg
rpp36_1 cpx36 cpy1 7.0000meg
rpp36_2 cpx36 cpy2 16.0000meg
rpp36_3 cpx36 cpy3 16.0000meg
rpp36_4 cpx36 cpy4 16.0000meg
rpp36_5 cpx36 cpy5 7.0000meg
rpp36_6 cpx36 cpy6 7.0000meg
rpp36_7 cpx36 cpy7 16.0000meg
rpp36_8 cpx36 cpy8 16.0000meg
rpp36_9 cpx36 cpy9 16.0000meg
rpp36_10 cpx36 cpy10 7.0000meg
rpp36_11 cpx36 cpy11 7.0000meg
rpp36_12 cpx36 cpy12 7.0000meg
rpp36_13 cpx36 cpy13 16.0000meg
rpp36_14 cpx36 cpy14 16.0000meg
rpp36_15 cpx36 cpy15 7.0000meg
rpp36_16 cpx36 cpy16 7.0000meg
rpp36_17 cpx36 cpy17 16.0000meg
rpp36_18 cpx36 cpy18 16.0000meg
rpp36_19 cpx36 cpy19 16.0000meg
rpp36_20 cpx36 cpy20 7.0000meg
rpp36_21 cpx36 cpy21 7.0000meg
rpp36_22 cpx36 cpy22 16.0000meg
rpp36_23 cpx36 cpy23 16.0000meg
rpp36_24 cpx36 cpy24 16.0000meg
rpp36_25 cpx36 cpy25 7.0000meg
rpp37_1 cpx37 cpy1 16.0000meg
rpp37_2 cpx37 cpy2 16.0000meg
rpp37_3 cpx37 cpy3 7.0000meg
rpp37_4 cpx37 cpy4 7.0000meg
rpp37_5 cpx37 cpy5 16.0000meg
rpp37_6 cpx37 cpy6 16.0000meg
rpp37_7 cpx37 cpy7 7.0000meg
rpp37_8 cpx37 cpy8 16.0000meg
rpp37_9 cpx37 cpy9 7.0000meg
rpp37_10 cpx37 cpy10 16.0000meg
rpp37_11 cpx37 cpy11 16.0000meg
rpp37_12 cpx37 cpy12 16.0000meg
rpp37_13 cpx37 cpy13 7.0000meg
rpp37_14 cpx37 cpy14 7.0000meg
rpp37_15 cpx37 cpy15 16.0000meg
rpp37_16 cpx37 cpy16 16.0000meg
rpp37_17 cpx37 cpy17 16.0000meg
rpp37_18 cpx37 cpy18 7.0000meg
rpp37_19 cpx37 cpy19 16.0000meg
rpp37_20 cpx37 cpy20 16.0000meg
rpp37_21 cpx37 cpy21 16.0000meg
rpp37_22 cpx37 cpy22 16.0000meg
rpp37_23 cpx37 cpy23 7.0000meg
rpp37_24 cpx37 cpy24 7.0000meg